<?xml version="1.0" encoding="UTF-8"?>

<!-- generated on 2024-06-12 18:31:58 by Eclipse SUMO sumo Version v1_20_0+0443-233e48e5c88
-->

<Configuration> 

    <input>
		<net-file value="test.net.xml"/>
        <route-files value="map.rou.xml"/>
		<additional-files value="map.poly.xml"/>
    </input>
   
    <time>
        <begin value="0"/>
        <end value="1000"/>
    </time>

   

</Configuration>